performance/linearized_pglib_scopf_baseline/pglib_opf_case39_epri.json
{"elements": {"bus": {"1": {"matpower_bustype": "PQ", "area": 2.0, "vm": 1.0, "va": 10.84962828804719, "base_kv": 345.0, "zone": 1.0, "v_min": 0.94, "v_max": 1.06, "lmp": 376.02027014084507, "pl": 97.6}, "2": {"matpower_bustype": "PQ", "area": 2.0, "vm": 1.0, "va": 7.647471310537208, "base_kv": 345.0, "zone": 1.0, "v_min": 0.94, "v_max": 1.06, "lmp": 6.72477799999935, "pl": 0.0}, "3": {"matpower_bustype": "PQ", "area": 2.0, "vm": 1.0, "va": 11.031093249695434, "base_kv": 345.0, "zone": 1.0, "v_min": 0.94, "v_max": 1.06, "lmp": 725.0390937992753, "pl": 322.0}, "4": {"matpower_bustype": "PQ", "area": 1.0, "vm": 1.0, "va": 11.900627425565839, "base_kv": 345.0, "zone": 1.0, "v_min": 0.94, "v_max": 1.06, "lmp": 666.9925834963751, "pl": 500.0}, "5": {"matpower_bustype": "PQ", "area": 1.0, "vm": 1.0, "va": 10.501547675582566, "base_kv": 345.0, "zone": 1.0, "v_min": 0.94, "v_max": 1.06, "lmp": 652.8216515430871, "pl": 0.0}, "6": {"matpower_bustype": "PQ", "area": 1.0, "vm": 1.0, "va": 9.75999226537647, "base_kv": 345.0, "zone": 1.0, "v_min": 0.94, "v_max": 1.06, "lmp": 654.1133978244565, "pl": 0.0}, "7": {"matpower_bustype": "PQ", "area": 1.0, "vm": 1.0, "va": 11.978630808543434, "base_kv": 345.0, "zone": 1.0, "v_min": 0.94, "v_max": 1.06, "lmp": 641.276226317629, "pl": 233.8}, "8": {"matpower_bustype": "PQ", "area": 1.0, "vm": 1.0, "va": 12.471745430619615, "base_kv": 345.0, "zone": 1.0, "v_min": 0.94, "v_max": 1.06, "lmp": 634.8576405642153, "pl": 522.0}, "9": {"matpower_bustype": "PQ", "area": 1.0, "vm": 1.0, "va": 11.891866567456255, "base_kv": 345.0, "zone": 1.0, "v_min": 0.94, "v_max": 1.06, "lmp": 525.9839841752427, "pl": 6.5}, "10": {"matpower_bustype": "PQ", "area": 1.0, "vm": 1.0, "va": 7.729576910095063, "base_kv": 345.0, "zone": 1.0, "v_min": 0.94, "v_max": 1.06, "lmp": 24.804733999999588, "pl": 0.0}, "11": {"matpower_bustype": "PQ", "area": 1.0, "vm": 1.0, "va": 8.435606503557242, "base_kv": 345.0, "zone": 1.0, "v_min": 0.94, "v_max": 1.06, "lmp": 21.83559395995144, "pl": 0.0}, "12": {"matpower_bustype": "PQ", "area": 1.0, "vm": 1.0, "va": 8.55299407120075, "base_kv": 345.0, "zone": 1.0, "v_min": 0.94, "v_max": 1.06, "lmp": 74.42198589997352, "pl": 8.53}, "13": {"matpower_bustype": "PQ", "area": 1.0, "vm": 1.0, "va": 8.45650719104396, "base_kv": 345.0, "zone": 1.0, "v_min": 0.94, "v_max": 1.06, "lmp": 127.00837783999552, "pl": 0.0}, "14": {"matpower_bustype": "PQ", "area": 1.0, "vm": 1.0, "va": 10.141678997113704, "base_kv": 345.0, "zone": 1.0, "v_min": 0.94, "v_max": 1.06, "lmp": 646.1192970805527, "pl": 0.0}, "15": {"matpower_bustype": "PQ", "area": 3.0, "vm": 1.0, "va": 10.803444417401145, "base_kv": 345.0, "zone": 1.0, "v_min": 0.94, "v_max": 1.06, "lmp": 652.0669633577278, "pl": 320.0}, "16": {"matpower_bustype": "PQ", "area": 3.0, "vm": 1.0, "va": 9.366650731431129, "base_kv": 345.0, "zone": 1.0, "v_min": 0.94, "v_max": 1.06, "lmp": 654.6433717911585, "pl": 329.0}, "17": {"matpower_bustype": "PQ", "area": 2.0, "vm": 1.0, "va": 10.262223345759647, "base_kv": 345.0, "zone": 1.0, "v_min": 0.94, "v_max": 1.06, "lmp": 657.0827372228111, "pl": 0.0}, "18": {"matpower_bustype": "PQ", "area": 2.0, "vm": 1.0, "va": 11.014671903895199, "base_kv": 345.0, "zone": 1.0, "v_min": 0.94, "v_max": 1.06, "lmp": 683.0009755449975, "pl": 158.0}, "19": {"matpower_bustype": "PQ", "area": 3.0, "vm": 1.0, "va": 4.003765769006617, "base_kv": 345.0, "zone": 1.0, "v_min": 0.94, "v_max": 1.06, "lmp": 654.6433717911585, "pl": 0.0}, "20": {"matpower_bustype": "PQ", "area": 3.0, "vm": 1.0, "va": 5.445336748880485, "base_kv": 345.0, "zone": 1.0, "v_min": 0.94, "v_max": 1.06, "lmp": 654.6433717911585, "pl": 680.0}, "21": {"matpower_bustype": "PQ", "area": 3.0, "vm": 1.0, "va": 7.239419968134932, "base_kv": 345.0, "zone": 1.0, "v_min": 0.94, "v_max": 1.06, "lmp": 532.3064830000002, "pl": 274.0}, "22": {"matpower_bustype": "PQ", "area": 3.0, "vm": 1.0, "va": 2.8355367781503737, "base_kv": 345.0, "zone": 1.0, "v_min": 0.94, "v_max": 1.06, "lmp": 32.306482999999865, "pl": 0.0}, "23": {"matpower_bustype": "PQ", "area": 3.0, "vm": 1.0, "va": 2.7941949643690323, "base_kv": 345.0, "zone": 1.0, "v_min": 0.94, "v_max": 1.06, "lmp": 32.306482999999936, "pl": 247.5}, "24": {"matpower_bustype": "PQ", "area": 3.0, "vm": 1.0, "va": 9.311265942459514, "base_kv": 345.0, "zone": 1.0, "v_min": 0.94, "v_max": 1.06, "lmp": 654.6433717911585, "pl": 308.6}, "25": {"matpower_bustype": "PQ", "area": 2.0, "vm": 1.0, "va": 7.641928427749762, "base_kv": 345.0, "zone": 1.0, "v_min": 0.94, "v_max": 1.06, "lmp": 31.550180999999355, "pl": 224.00000000000003}, "26": {"matpower_bustype": "PQ", "area": 2.0, "vm": 1.0, "va": 8.179158330423414, "base_kv": 345.0, "zone": 1.0, "v_min": 0.94, "v_max": 1.06, "lmp": 124.7897759883714, "pl": 139.0}, "27": {"matpower_bustype": "PQ", "area": 2.0, "vm": 1.0, "va": 10.415572572568532, "base_kv": 345.0, "zone": 1.0, "v_min": 0.94, "v_max": 1.06, "lmp": 607.1432637460671, "pl": 281.0}, "28": {"matpower_bustype": "PQ", "area": 3.0, "vm": 1.0, "va": 3.75603273897479, "base_kv": 345.0, "zone": 1.0, "v_min": 0.94, "v_max": 1.06, "lmp": 124.78977598837162, "pl": 206.0}, "29": {"matpower_bustype": "PQ", "area": 3.0, "vm": 1.0, "va": 0.564735444418189, "base_kv": 345.0, "zone": 1.0, "v_min": 0.94, "v_max": 1.06, "lmp": 124.78977598837155, "pl": 283.5}, "30": {"matpower_bustype": "PV", "area": 2.0, "vm": 1.0, "va": 2.0567169216744867, "base_kv": 345.0, "zone": 1.0, "v_min": 0.94, "v_max": 1.06, "lmp": 6.72477799999935, "pl": 0.0}, "31": {"matpower_bustype": "ref", "area": 1.0, "vm": 1.0, "va": -0.0, "base_kv": 345.0, "zone": 1.0, "v_min": 0.94, "v_max": 1.06, "lmp": 654.1133978244578, "pl": 9.2}, "32": {"matpower_bustype": "PV", "area": 1.0, "vm": 1.0, "va": 0.5981021862818009, "base_kv": 345.0, "zone": 1.0, "v_min": 0.94, "v_max": 1.06, "lmp": 24.804733999999588, "pl": 0.0}, "33": {"matpower_bustype": "PV", "area": 3.0, "vm": 1.0, "va": -1.6722337529633415, "base_kv": 345.0, "zone": 1.0, "v_min": 0.94, "v_max": 1.06, "lmp": 654.6433717911585, "pl": 0.0}, "34": {"matpower_bustype": "PV", "area": 3.0, "vm": 1.0, "va": 0.159058535496152, "base_kv": 345.0, "zone": 1.0, "v_min": 0.94, "v_max": 1.06, "lmp": 654.6433717911585, "pl": 0.0}, "35": {"matpower_bustype": "PV", "area": 3.0, "vm": 1.0, "va": -1.7120500115230424, "base_kv": 345.0, "zone": 1.0, "v_min": 0.94, "v_max": 1.06, "lmp": 32.306482999999865, "pl": 0.0}, "36": {"matpower_bustype": "PV", "area": 3.0, "vm": 1.0, "va": -6.244787211614835, "base_kv": 345.0, "zone": 1.0, "v_min": 0.94, "v_max": 1.06, "lmp": 32.306482999999936, "pl": 0.0}, "37": {"matpower_bustype": "PV", "area": 2.0, "vm": 1.0, "va": 4.179095003440117, "base_kv": 345.0, "zone": 1.0, "v_min": 0.94, "v_max": 1.06, "lmp": 31.550180999999355, "pl": 0.0}, "38": {"matpower_bustype": "PV", "area": 3.0, "vm": 1.0, "va": -7.360044355264522, "base_kv": 345.0, "zone": 1.0, "v_min": 0.94, "v_max": 1.06, "lmp": 124.78977598837155, "pl": 0.0}, "39": {"matpower_bustype": "PV", "area": 1.0, "vm": 1.0, "va": 11.399395317508265, "base_kv": 345.0, "zone": 1.0, "v_min": 0.94, "v_max": 1.06, "lmp": 451.0021271580439, "pl": 1104.0}}, "load": {"load_1": {"in_service": true, "p_load": 97.6, "q_load": 44.2, "bus": "1"}, "load_3": {"in_service": true, "p_load": 322.0, "q_load": 2.4, "bus": "3"}, "load_4": {"in_service": true, "p_load": 500.0, "q_load": 184.0, "bus": "4"}, "load_7": {"in_service": true, "p_load": 233.8, "q_load": 84.0, "bus": "7"}, "load_8": {"in_service": true, "p_load": 522.0, "q_load": 176.6, "bus": "8"}, "load_9": {"in_service": true, "p_load": 6.5, "q_load": -66.6, "bus": "9"}, "load_12": {"in_service": true, "p_load": 8.53, "q_load": 88.0, "bus": "12"}, "load_15": {"in_service": true, "p_load": 320.0, "q_load": 153.0, "bus": "15"}, "load_16": {"in_service": true, "p_load": 329.0, "q_load": 32.3, "bus": "16"}, "load_18": {"in_service": true, "p_load": 158.0, "q_load": 30.0, "bus": "18"}, "load_20": {"in_service": true, "p_load": 680.0, "q_load": 103.0, "bus": "20"}, "load_21": {"in_service": true, "p_load": 274.0, "q_load": 114.99999999999999, "bus": "21"}, "load_23": {"in_service": true, "p_load": 247.5, "q_load": 84.6, "bus": "23"}, "load_24": {"in_service": true, "p_load": 308.6, "q_load": -92.2, "bus": "24"}, "load_25": {"in_service": true, "p_load": 224.00000000000003, "q_load": 47.2, "bus": "25"}, "load_26": {"in_service": true, "p_load": 139.0, "q_load": 17.0, "bus": "26"}, "load_27": {"in_service": true, "p_load": 281.0, "q_load": 75.5, "bus": "27"}, "load_28": {"in_service": true, "p_load": 206.0, "q_load": 27.6, "bus": "28"}, "load_29": {"in_service": true, "p_load": 283.5, "q_load": 26.899999999999995, "bus": "29"}, "load_31": {"in_service": true, "p_load": 9.2, "q_load": 4.6, "bus": "31"}, "load_39": {"in_service": true, "p_load": 1104.0, "q_load": 250.0, "bus": "39"}}, "generator": {"1": {"bus": "30", "pg": 525.951067273833, "qg": 270.0, "vg": 1.0, "mbase": 100.0, "in_service": true, "p_min": 0.0, "p_max": 1040.0, "q_min": 140.0, "q_max": 400.0, "generator_type": "thermal", "p_cost": {"data_type": "cost_curve", "cost_curve_type": "piecewise", "values": [[0.0, 0.0], [346.6666666666667, 2331.256373333333], [693.3333333333334, 4662.512746666666], [1040.0, 6993.76912]]}, "startup_cost": 0.0, "shutdown_cost": 0.0}, "2": {"bus": "31", "pg": 646.0, "qg": 100.0, "vg": 1.0, "mbase": 100.0, "in_service": true, "p_min": 0.0, "p_max": 646.0, "q_min": -100.0, "q_max": 300.0, "generator_type": "thermal", "p_cost": {"data_type": "cost_curve", "cost_curve_type": "piecewise", "values": [[0.0, 0.0], [215.33333333333334, 3167.041916666667], [430.6666666666667, 6334.083833333334], [646.0, 9501.12575]]}, "startup_cost": 0.0, "shutdown_cost": 0.0}, "3": {"bus": "32", "pg": 581.6248338939004, "qg": 225.0, "vg": 1.0, "mbase": 100.0, "in_service": true, "p_min": 0.0, "p_max": 725.0, "q_min": 150.0, "q_max": 300.0, "generator_type": "thermal", "p_cost": {"data_type": "cost_curve", "cost_curve_type": "piecewise", "values": [[0.0, 0.0], [241.66666666666666, 5994.477383333333], [483.3333333333333, 11988.954766666666], [725.0, 17983.43215]]}, "startup_cost": 0.0, "shutdown_cost": 0.0}, "4": {"bus": "33", "pg": 652.0, "qg": 125.0, "vg": 1.0, "mbase": 100.0, "in_service": true, "p_min": 0.0, "p_max": 652.0, "q_min": 0.0, "q_max": 250.0, "generator_type": "thermal", "p_cost": {"data_type": "cost_curve", "cost_curve_type": "piecewise", "values": [[0.0, 0.0], [217.33333333333334, 7572.9024119999995], [434.6666666666667, 15145.804823999999], [652.0, 22718.707236]]}, "startup_cost": 0.0, "shutdown_cost": 0.0}, "5": {"bus": "34", "pg": 508.0, "qg": 83.5, "vg": 1.0, "mbase": 100.0, "in_service": true, "p_min": 0.0, "p_max": 508.0, "q_min": 0.0, "q_max": 167.0, "generator_type": "thermal", "p_cost": {"data_type": "cost_curve", "cost_curve_type": "piecewise", "values": [[0.0, 0.0], [169.33333333333334, 4174.573650666667], [338.6666666666667, 8349.147301333334], [508.0, 12523.720952]]}, "startup_cost": 0.0, "shutdown_cost": 0.0}, "6": {"bus": "35", "pg": 541.4999999999998, "qg": 100.0, "vg": 1.0, "mbase": 100.0, "in_service": true, "p_min": 0.0, "p_max": 687.0, "q_min": -100.0, "q_max": 300.0, "generator_type": "thermal", "p_cost": {"data_type": "cost_curve", "cost_curve_type": "piecewise", "values": [[0.0, 0.0], [229.0, 7398.184607], [458.0, 14796.369214], [687.0, 22194.553821]]}, "startup_cost": 0.0, "shutdown_cost": 0.0}, "7": {"bus": "36", "pg": 580.0, "qg": 120.0, "vg": 1.0, "mbase": 100.0, "in_service": true, "p_min": 0.0, "p_max": 580.0, "q_min": 0.0, "q_max": 240.0, "generator_type": "thermal", "p_cost": {"data_type": "cost_curve", "cost_curve_type": "piecewise", "values": [[0.0, 0.0], [193.33333333333334, 3510.4455533333335], [386.6666666666667, 7020.891106666667], [580.0, 10531.33666]]}, "startup_cost": 0.0, "shutdown_cost": 0.0}, "8": {"bus": "37", "pg": 254.1540988322673, "qg": 125.0, "vg": 1.0, "mbase": 100.0, "in_service": true, "p_min": 0.0, "p_max": 564.0, "q_min": 0.0, "q_max": 250.0, "generator_type": "thermal", "p_cost": {"data_type": "cost_curve", "cost_curve_type": "piecewise", "values": [[0.0, 0.0], [188.0, 5931.434028], [376.0, 11862.868056], [564.0, 17794.302084]]}, "startup_cost": 0.0, "shutdown_cost": 0.0}, "9": {"bus": "38", "pg": 865.0, "qg": 75.0, "vg": 1.0, "mbase": 100.0, "in_service": true, "p_min": 0.0, "p_max": 865.0, "q_min": -150.0, "q_max": 300.0, "generator_type": "thermal", "p_cost": {"data_type": "cost_curve", "cost_curve_type": "piecewise", "values": [[0.0, 0.0], [288.3333333333333, 6488.413439999999], [576.6666666666666, 12976.826879999999], [865.0, 19465.240319999997]]}, "startup_cost": 0.0, "shutdown_cost": 0.0}, "10": {"bus": "39", "pg": 1100.0, "qg": 100.0, "vg": 1.0, "mbase": 100.0, "in_service": true, "p_min": 0.0, "p_max": 1100.0, "q_min": -100.0, "q_max": 300.0, "generator_type": "thermal", "p_cost": {"data_type": "cost_curve", "cost_curve_type": "piecewise", "values": [[0.0, 0.0], [366.6666666666667, 10059.296133333333], [733.3333333333334, 20118.592266666667], [1100.0, 30177.8884]]}, "startup_cost": 0.0, "shutdown_cost": 0.0}}, "branch": {"1": {"from_bus": "1", "to_bus": "2", "resistance": 0.0035, "reactance": 0.0411, "charging_susceptance": 0.6987, "branch_type": "line", "rating_long_term": 600.0, "rating_short_term": 600.0, "rating_emergency": 600.0, "in_service": true, "angle_diff_min": -30.0, "angle_diff_max": 30.0, "pf": -135.98097913201755, "qf": null, "pt": null, "qt": null}, "2": {"from_bus": "1", "to_bus": "39", "resistance": 0.001, "reactance": 0.025, "charging_susceptance": 0.75, "branch_type": "line", "rating_long_term": 1000.0, "rating_short_term": 1000.0, "rating_emergency": 1000.0, "in_service": true, "angle_diff_min": -30.0, "angle_diff_max": 30.0, "pf": 38.380979132017615, "qf": null, "pt": null, "qt": null}, "3": {"from_bus": "2", "to_bus": "3", "resistance": 0.0013, "reactance": 0.0151, "charging_susceptance": 0.2572, "branch_type": "line", "rating_long_term": 500.0, "rating_short_term": 500.0, "rating_emergency": 500.0, "in_service": true, "angle_diff_min": -30.0, "angle_diff_max": 30.0, "pf": 391.0949899405715, "qf": null, "pt": null, "qt": null}, "4": {"from_bus": "2", "to_bus": "25", "resistance": 0.007, "reactance": 0.0086, "charging_susceptance": 0.146, "branch_type": "line", "rating_long_term": 500.0, "rating_short_term": 500.0, "rating_emergency": 500.0, "in_service": true, "angle_diff_min": -30.0, "angle_diff_max": 30.0, "pf": -1.1249017987563703, "qf": null, "pt": null, "qt": null}, "5": {"from_bus": "2", "to_bus": "30", "resistance": 0.0, "reactance": 0.0181, "charging_susceptance": 0.0, "transformer_tap_ratio": 1.025, "transformer_phase_shift": 0.0, "branch_type": "transformer", "rating_long_term": 900.0, "rating_short_term": 900.0, "rating_emergency": 2500.0, "in_service": true, "angle_diff_min": -30.0, "angle_diff_max": 30.0, "pf": -525.951067273833, "qf": null, "pt": null, "qt": null}, "6": {"from_bus": "3", "to_bus": "4", "resistance": 0.0013, "reactance": 0.0213, "charging_susceptance": 0.2214, "branch_type": "line", "rating_long_term": 500.0, "rating_short_term": 500.0, "rating_emergency": 500.0, "in_service": true, "angle_diff_min": -30.0, "angle_diff_max": 30.0, "pf": 71.24992642044134, "qf": null, "pt": null, "qt": null}, "7": {"from_bus": "3", "to_bus": "18", "resistance": 0.0011, "reactance": 0.0133, "charging_susceptance": 0.2138, "branch_type": "line", "rating_long_term": 500.0, "rating_short_term": 500.0, "rating_emergency": 500.0, "in_service": true, "angle_diff_min": -30.0, "angle_diff_max": 30.0, "pf": -2.1549364798697495, "qf": null, "pt": null, "qt": null}, "8": {"from_bus": "4", "to_bus": "5", "resistance": 0.0008, "reactance": 0.0128, "charging_susceptance": 0.1342, "branch_type": "line", "rating_long_term": 600.0, "rating_short_term": 600.0, "rating_emergency": 600.0, "in_service": true, "angle_diff_min": -30.0, "angle_diff_max": 30.0, "pf": -190.76990730615017, "qf": null, "pt": null, "qt": null}, "9": {"from_bus": "4", "to_bus": "14", "resistance": 0.0008, "reactance": 0.0129, "charging_susceptance": 0.1382, "branch_type": "line", "rating_long_term": 500.0, "rating_short_term": 500.0, "rating_emergency": 500.0, "in_service": true, "angle_diff_min": -30.0, "angle_diff_max": 30.0, "pf": -237.9801662734082, "qf": null, "pt": null, "qt": null}, "10": {"from_bus": "5", "to_bus": "6", "resistance": 0.0002, "reactance": 0.0026, "charging_susceptance": 0.0434, "branch_type": "line", "rating_long_term": 1200.0, "rating_short_term": 1200.0, "rating_emergency": 1200.0, "in_service": true, "angle_diff_min": -30.0, "angle_diff_max": 30.0, "pf": -497.7916728489829, "qf": null, "pt": null, "qt": null}, "11": {"from_bus": "5", "to_bus": "8", "resistance": 0.0008, "reactance": 0.0112, "charging_susceptance": 0.1476, "branch_type": "line", "rating_long_term": 900.0, "rating_short_term": 900.0, "rating_emergency": 900.0, "in_service": true, "angle_diff_min": -30.0, "angle_diff_max": 30.0, "pf": 307.02176554283204, "qf": null, "pt": null, "qt": null}, "12": {"from_bus": "6", "to_bus": "7", "resistance": 0.0006, "reactance": 0.0092, "charging_susceptance": 0.113, "branch_type": "line", "rating_long_term": 900.0, "rating_short_term": 900.0, "rating_emergency": 900.0, "in_service": true, "angle_diff_min": -30.0, "angle_diff_max": 30.0, "pf": 420.8972553251508, "qf": null, "pt": null, "qt": null}, "13": {"from_bus": "6", "to_bus": "11", "resistance": 0.0007, "reactance": 0.0082, "charging_susceptance": 0.1389, "branch_type": "line", "rating_long_term": 480.0, "rating_short_term": 480.0, "rating_emergency": 480.0, "in_service": true, "angle_diff_min": -30.0, "angle_diff_max": 30.0, "pf": -281.8889281741332, "qf": null, "pt": null, "qt": null}, "14": {"from_bus": "6", "to_bus": "31", "resistance": 0.0, "reactance": 0.025, "charging_susceptance": 0.0, "transformer_tap_ratio": 1.07, "transformer_phase_shift": 0.0, "branch_type": "transformer", "rating_long_term": 1800.0, "rating_short_term": 1800.0, "rating_emergency": 1800.0, "in_service": true, "angle_diff_min": -30.0, "angle_diff_max": 30.0, "pf": -636.7999999999981, "qf": null, "pt": null, "qt": null}, "15": {"from_bus": "7", "to_bus": "8", "resistance": 0.0004, "reactance": 0.0046, "charging_susceptance": 0.078, "branch_type": "line", "rating_long_term": 900.0, "rating_short_term": 900.0, "rating_emergency": 900.0, "in_service": true, "angle_diff_min": -30.0, "angle_diff_max": 30.0, "pf": 187.09725532514986, "qf": null, "pt": null, "qt": null}, "16": {"from_bus": "8", "to_bus": "9", "resistance": 0.0023, "reactance": 0.0363, "charging_susceptance": 0.3804, "branch_type": "line", "rating_long_term": 900.0, "rating_short_term": 900.0, "rating_emergency": 900.0, "in_service": true, "angle_diff_min": -30.0, "angle_diff_max": 30.0, "pf": -27.88097913201734, "qf": null, "pt": null, "qt": null}, "17": {"from_bus": "9", "to_bus": "39", "resistance": 0.001, "reactance": 0.025, "charging_susceptance": 1.2, "branch_type": "line", "rating_long_term": 900.0, "rating_short_term": 900.0, "rating_emergency": 900.0, "in_service": true, "angle_diff_min": -30.0, "angle_diff_max": 30.0, "pf": -34.38097913201747, "qf": null, "pt": null, "qt": null}, "18": {"from_bus": "10", "to_bus": "11", "resistance": 0.0004, "reactance": 0.0043, "charging_susceptance": 0.0729, "branch_type": "line", "rating_long_term": 600.0, "rating_short_term": 600.0, "rating_emergency": 600.0, "in_service": true, "angle_diff_min": -30.0, "angle_diff_max": 30.0, "pf": 286.57072145190824, "qf": null, "pt": null, "qt": null}, "19": {"from_bus": "10", "to_bus": "13", "resistance": 0.0004, "reactance": 0.0043, "charging_susceptance": 0.0729, "branch_type": "line", "rating_long_term": 600.0, "rating_short_term": 600.0, "rating_emergency": 600.0, "in_service": true, "angle_diff_min": -30.0, "angle_diff_max": 30.0, "pf": 295.0541124419919, "qf": null, "pt": null, "qt": null}, "20": {"from_bus": "10", "to_bus": "32", "resistance": 0.0, "reactance": 0.02, "charging_susceptance": 0.0, "transformer_tap_ratio": 1.07, "transformer_phase_shift": 0.0, "branch_type": "transformer", "rating_long_term": 900.0, "rating_short_term": 900.0, "rating_emergency": 2500.0, "in_service": true, "angle_diff_min": -30.0, "angle_diff_max": 30.0, "pf": -581.6248338939004, "qf": null, "pt": null, "qt": null}, "21": {"from_bus": "12", "to_bus": "11", "resistance": 0.0016, "reactance": 0.0435, "charging_susceptance": 0.0, "transformer_tap_ratio": 1.006, "transformer_phase_shift": 0.0, "branch_type": "transformer", "rating_long_term": 500.0, "rating_short_term": 500.0, "rating_emergency": 500.0, "in_service": true, "angle_diff_min": -30.0, "angle_diff_max": 30.0, "pf": -4.681793277774225, "qf": null, "pt": null, "qt": null}, "22": {"from_bus": "12", "to_bus": "13", "resistance": 0.0016, "reactance": 0.0435, "charging_susceptance": 0.0, "transformer_tap_ratio": 1.006, "transformer_phase_shift": 0.0, "branch_type": "transformer", "rating_long_term": 500.0, "rating_short_term": 500.0, "rating_emergency": 500.0, "in_service": true, "angle_diff_min": -30.0, "angle_diff_max": 30.0, "pf": -3.848206722225675, "qf": null, "pt": null, "qt": null}, "23": {"from_bus": "13", "to_bus": "14", "resistance": 0.0009, "reactance": 0.0101, "charging_susceptance": 0.1723, "branch_type": "line", "rating_long_term": 600.0, "rating_short_term": 600.0, "rating_emergency": 600.0, "in_service": true, "angle_diff_min": -30.0, "angle_diff_max": 30.0, "pf": 291.20590571976635, "qf": null, "pt": null, "qt": null}, "24": {"from_bus": "14", "to_bus": "15", "resistance": 0.0018, "reactance": 0.0217, "charging_susceptance": 0.366, "branch_type": "line", "rating_long_term": 600.0, "rating_short_term": 600.0, "rating_emergency": 600.0, "in_service": true, "angle_diff_min": -30.0, "angle_diff_max": 30.0, "pf": 53.2257394463591, "qf": null, "pt": null, "qt": null}, "25": {"from_bus": "15", "to_bus": "16", "resistance": 0.0009, "reactance": 0.0094, "charging_susceptance": 0.171, "branch_type": "line", "rating_long_term": 600.0, "rating_short_term": 600.0, "rating_emergency": 600.0, "in_service": true, "angle_diff_min": -30.0, "angle_diff_max": 30.0, "pf": -266.7742605536409, "qf": null, "pt": null, "qt": null}, "26": {"from_bus": "16", "to_bus": "17", "resistance": 0.0007, "reactance": 0.0089, "charging_susceptance": 0.1342, "branch_type": "line", "rating_long_term": 600.0, "rating_short_term": 600.0, "rating_emergency": 600.0, "in_service": true, "angle_diff_min": -30.0, "angle_diff_max": 30.0, "pf": 175.62573944635957, "qf": null, "pt": null, "qt": null}, "27": {"from_bus": "16", "to_bus": "19", "resistance": 0.0016, "reactance": 0.0195, "charging_susceptance": 0.304, "branch_type": "line", "rating_long_term": 600.0, "rating_short_term": 600.0, "rating_emergency": 2500.0, "in_service": true, "angle_diff_min": -30.0, "angle_diff_max": 30.0, "pf": -480.0000000000006, "qf": null, "pt": null, "qt": null}, "28": {"from_bus": "16", "to_bus": "21", "resistance": 0.0008, "reactance": 0.0135, "charging_susceptance": 0.2548, "branch_type": "line", "rating_long_term": 600.0, "rating_short_term": 600.0, "rating_emergency": 600.0, "in_service": true, "angle_diff_min": -30.0, "angle_diff_max": 30.0, "pf": -275.0161538461538, "qf": null, "pt": null, "qt": null}, "29": {"from_bus": "16", "to_bus": "24", "resistance": 0.0003, "reactance": 0.0059, "charging_susceptance": 0.068, "branch_type": "line", "rating_long_term": 600.0, "rating_short_term": 600.0, "rating_emergency": 600.0, "in_service": true, "angle_diff_min": -30.0, "angle_diff_max": 30.0, "pf": -16.383846153846054, "qf": null, "pt": null, "qt": null}, "30": {"from_bus": "17", "to_bus": "18", "resistance": 0.0007, "reactance": 0.0082, "charging_susceptance": 0.1319, "branch_type": "line", "rating_long_term": 600.0, "rating_short_term": 600.0, "rating_emergency": 600.0, "in_service": true, "angle_diff_min": -30.0, "angle_diff_max": 30.0, "pf": 160.15493647987006, "qf": null, "pt": null, "qt": null}, "31": {"from_bus": "17", "to_bus": "27", "resistance": 0.0013, "reactance": 0.0173, "charging_susceptance": 0.3216, "branch_type": "line", "rating_long_term": 600.0, "rating_short_term": 600.0, "rating_emergency": 600.0, "in_service": true, "angle_diff_min": -30.0, "angle_diff_max": 30.0, "pf": 15.47080296648907, "qf": null, "pt": null, "qt": null}, "32": {"from_bus": "19", "to_bus": "20", "resistance": 0.0007, "reactance": 0.0138, "charging_susceptance": 0.0, "transformer_tap_ratio": 1.06, "transformer_phase_shift": 0.0, "branch_type": "transformer", "rating_long_term": 900.0, "rating_short_term": 900.0, "rating_emergency": 2500.0, "in_service": true, "angle_diff_min": -30.0, "angle_diff_max": 30.0, "pf": 171.9999999999994, "qf": null, "pt": null, "qt": null}, "33": {"from_bus": "19", "to_bus": "33", "resistance": 0.0007, "reactance": 0.0142, "charging_susceptance": 0.0, "transformer_tap_ratio": 1.07, "transformer_phase_shift": 0.0, "branch_type": "transformer", "rating_long_term": 900.0, "rating_short_term": 900.0, "rating_emergency": 2500.0, "in_service": true, "angle_diff_min": -30.0, "angle_diff_max": 30.0, "pf": -652.0, "qf": null, "pt": null, "qt": null}, "34": {"from_bus": "20", "to_bus": "34", "resistance": 0.0009, "reactance": 0.018, "charging_susceptance": 0.0, "transformer_tap_ratio": 1.009, "transformer_phase_shift": 0.0, "branch_type": "transformer", "rating_long_term": 900.0, "rating_short_term": 900.0, "rating_emergency": 2500.0, "in_service": true, "angle_diff_min": -30.0, "angle_diff_max": 30.0, "pf": -508.0, "qf": null, "pt": null, "qt": null}, "35": {"from_bus": "21", "to_bus": "22", "resistance": 0.0008, "reactance": 0.014, "charging_susceptance": 0.2565, "branch_type": "line", "rating_long_term": 900.0, "rating_short_term": 900.0, "rating_emergency": 900.0, "in_service": true, "angle_diff_min": -30.0, "angle_diff_max": 30.0, "pf": -549.0161538461537, "qf": null, "pt": null, "qt": null}, "36": {"from_bus": "22", "to_bus": "23", "resistance": 0.0006, "reactance": 0.0096, "charging_susceptance": 0.1846, "branch_type": "line", "rating_long_term": 600.0, "rating_short_term": 600.0, "rating_emergency": 600.0, "in_service": true, "angle_diff_min": -30.0, "angle_diff_max": 30.0, "pf": -7.516153846153956, "qf": null, "pt": null, "qt": null}, "37": {"from_bus": "22", "to_bus": "35", "resistance": 0.0, "reactance": 0.0143, "charging_susceptance": 0.0, "transformer_tap_ratio": 1.025, "transformer_phase_shift": 0.0, "branch_type": "transformer", "rating_long_term": 900.0, "rating_short_term": 900.0, "rating_emergency": 2500.0, "in_service": true, "angle_diff_min": -30.0, "angle_diff_max": 30.0, "pf": -541.4999999999998, "qf": null, "pt": null, "qt": null}, "38": {"from_bus": "23", "to_bus": "24", "resistance": 0.0022, "reactance": 0.035, "charging_susceptance": 0.361, "branch_type": "line", "rating_long_term": 600.0, "rating_short_term": 600.0, "rating_emergency": 600.0, "in_service": true, "angle_diff_min": -30.0, "angle_diff_max": 30.0, "pf": 324.9838461538461, "qf": null, "pt": null, "qt": null}, "39": {"from_bus": "23", "to_bus": "36", "resistance": 0.0005, "reactance": 0.0272, "charging_susceptance": 0.0, "branch_type": "line", "rating_long_term": 900.0, "rating_short_term": 900.0, "rating_emergency": 2500.0, "in_service": true, "angle_diff_min": -30.0, "angle_diff_max": 30.0, "pf": -580.0, "qf": null, "pt": null, "qt": null}, "40": {"from_bus": "25", "to_bus": "26", "resistance": 0.0032, "reactance": 0.0323, "charging_susceptance": 0.531, "branch_type": "line", "rating_long_term": 600.0, "rating_short_term": 600.0, "rating_emergency": 600.0, "in_service": true, "angle_diff_min": -30.0, "angle_diff_max": 30.0, "pf": 29.029197033510613, "qf": null, "pt": null, "qt": null}, "41": {"from_bus": "25", "to_bus": "37", "resistance": 0.0006, "reactance": 0.0232, "charging_susceptance": 0.0, "transformer_tap_ratio": 1.025, "transformer_phase_shift": 0.0, "branch_type": "transformer", "rating_long_term": 900.0, "rating_short_term": 900.0, "rating_emergency": 2500.0, "in_service": true, "angle_diff_min": -30.0, "angle_diff_max": 30.0, "pf": -254.15409883226724, "qf": null, "pt": null, "qt": null}, "42": {"from_bus": "26", "to_bus": "27", "resistance": 0.0014, "reactance": 0.0147, "charging_susceptance": 0.2396, "branch_type": "line", "rating_long_term": 600.0, "rating_short_term": 600.0, "rating_emergency": 600.0, "in_service": true, "angle_diff_min": -30.0, "angle_diff_max": 30.0, "pf": 265.52919703351057, "qf": null, "pt": null, "qt": null}, "43": {"from_bus": "26", "to_bus": "28", "resistance": 0.0043, "reactance": 0.0474, "charging_susceptance": 0.7802, "branch_type": "line", "rating_long_term": 600.0, "rating_short_term": 600.0, "rating_emergency": 600.0, "in_service": true, "angle_diff_min": -30.0, "angle_diff_max": 30.0, "pf": -162.86520000000007, "qf": null, "pt": null, "qt": null}, "44": {"from_bus": "26", "to_bus": "29", "resistance": 0.0057, "reactance": 0.0625, "charging_susceptance": 1.029, "branch_type": "line", "rating_long_term": 600.0, "rating_short_term": 600.0, "rating_emergency": 600.0, "in_service": true, "angle_diff_min": -30.0, "angle_diff_max": 30.0, "pf": -212.63480000000007, "qf": null, "pt": null, "qt": null}, "45": {"from_bus": "28", "to_bus": "29", "resistance": 0.0014, "reactance": 0.0151, "charging_susceptance": 0.249, "branch_type": "line", "rating_long_term": 600.0, "rating_short_term": 600.0, "rating_emergency": 600.0, "in_service": true, "angle_diff_min": -30.0, "angle_diff_max": 30.0, "pf": -368.86519999999996, "qf": null, "pt": null, "qt": null}, "46": {"from_bus": "29", "to_bus": "38", "resistance": 0.0008, "reactance": 0.0156, "charging_susceptance": 0.0, "transformer_tap_ratio": 1.025, "transformer_phase_shift": 0.0, "branch_type": "transformer", "rating_long_term": 1200.0, "rating_short_term": 1200.0, "rating_emergency": 2500.0, "in_service": true, "angle_diff_min": -30.0, "angle_diff_max": 30.0, "pf": -865.0, "qf": null, "pt": null, "qt": null}}, "contingency": {"1": {"branch_contingency": "1", "monitored_branches": {"3": {"pf": 499.99999999999983}}}, "2": {"branch_contingency": "2", "monitored_branches": {"3": {"pf": 421.8337075549302}}}, "3": {"branch_contingency": "3"}, "4": {"branch_contingency": "4", "monitored_branches": {"3": {"pf": 390.10525776230776}}}, "6": {"branch_contingency": "6"}, "7": {"branch_contingency": "7"}, "8": {"branch_contingency": "8"}, "9": {"branch_contingency": "9"}, "10": {"branch_contingency": "10"}, "11": {"branch_contingency": "11"}, "12": {"branch_contingency": "12"}, "13": {"branch_contingency": "13"}, "15": {"branch_contingency": "15"}, "16": {"branch_contingency": "16"}, "17": {"branch_contingency": "17", "monitored_branches": {"3": {"pf": 418.63017097931265}}}, "18": {"branch_contingency": "18", "monitored_branches": {"19": {"pf": 581.6248338939007}}}, "19": {"branch_contingency": "19", "monitored_branches": {"18": {"pf": 581.6248338939005}, "13": {"pf": -479.99999999999983}}}, "21": {"branch_contingency": "21"}, "22": {"branch_contingency": "22"}, "23": {"branch_contingency": "23", "monitored_branches": {"13": {"pf": -573.0948338939002}}}, "24": {"branch_contingency": "24"}, "25": {"branch_contingency": "25"}, "26": {"branch_contingency": "26"}, "28": {"branch_contingency": "28", "monitored_branches": {"38": {"pf": 599.9999999999999}}}, "29": {"branch_contingency": "29"}, "30": {"branch_contingency": "30", "monitored_branches": {"3": {"pf": 467.53395519971133}}}, "31": {"branch_contingency": "31"}, "35": {"branch_contingency": "35", "monitored_branches": {"38": {"pf": 873.9999999999999}}}, "36": {"branch_contingency": "36"}, "38": {"branch_contingency": "38", "monitored_branches": {"28": {"pf": -599.9999999999998}}}, "40": {"branch_contingency": "40", "monitored_branches": {"3": {"pf": 416.63600200489566}}}, "42": {"branch_contingency": "42", "monitored_branches": {"3": {"pf": 624.7178633887855}}}, "43": {"branch_contingency": "43"}, "44": {"branch_contingency": "44"}, "45": {"branch_contingency": "45"}}}, "system": {"model_name": "pglib_opf_case39_epri", "mpc_version": "'2'", "baseMVA": 100.0, "reference_bus": "31", "reference_bus_angle": 0.0, "load_mismatch_cost": 1000000.0, "total_cost": 394300.889782704, "p_balance_violation": 0.0}}